Version 4
SHEET 1 5440 4756
WIRE 736 496 720 496
WIRE 2416 560 2400 560
WIRE 832 576 736 576
WIRE 1088 576 912 576
WIRE 432 608 384 608
WIRE -1040 624 -1088 624
WIRE -848 624 -960 624
WIRE -784 624 -848 624
WIRE -736 624 -784 624
WIRE -624 624 -672 624
WIRE -592 624 -624 624
WIRE -464 624 -512 624
WIRE -624 640 -624 624
WIRE -512 640 -512 624
WIRE 1088 640 1088 576
WIRE 2512 640 2416 640
WIRE -784 656 -784 624
WIRE 304 656 304 608
WIRE 368 656 304 656
WIRE 432 656 432 608
WIRE 32 672 -96 672
WIRE -416 688 -416 656
WIRE -368 688 -416 688
WIRE 1168 688 1152 688
WIRE 1440 688 1408 688
WIRE -1568 704 -1568 624
WIRE 736 704 736 656
WIRE 2128 704 2016 704
WIRE -672 720 -672 624
WIRE 1712 720 1600 720
WIRE 304 736 304 656
WIRE 336 736 304 736
WIRE -96 752 -96 672
WIRE -64 752 -96 752
WIRE 432 752 432 656
WIRE 432 752 400 752
WIRE 512 752 512 656
WIRE 576 752 576 656
WIRE 672 752 672 656
WIRE 672 752 656 752
WIRE 1328 752 1328 688
WIRE 1376 752 1328 752
WIRE 1440 752 1440 688
WIRE 32 768 32 672
WIRE 32 768 0 768
WIRE 240 768 208 768
WIRE 336 768 320 768
WIRE 2416 768 2416 720
WIRE -1568 784 -1568 704
WIRE -416 784 -416 768
WIRE -400 784 -416 784
WIRE -304 784 -304 736
WIRE -304 784 -336 784
WIRE -64 784 -80 784
WIRE -672 800 -736 800
WIRE -416 800 -416 784
WIRE 576 800 576 752
WIRE 2016 800 2016 704
WIRE 2032 800 2016 800
WIRE 240 816 240 768
WIRE 320 816 320 768
WIRE 1600 816 1600 720
WIRE 1616 816 1600 816
WIRE 2128 816 2128 704
WIRE 2128 816 2096 816
WIRE 2352 816 2352 720
WIRE -160 832 -160 784
WIRE -80 832 -80 784
WIRE 672 832 672 752
WIRE 736 832 736 800
WIRE 784 832 736 832
WIRE 800 832 784 832
WIRE 960 832 880 832
WIRE 1024 832 960 832
WIRE 1168 832 1168 688
WIRE 1328 832 1328 752
WIRE 1328 832 1312 832
WIRE 1344 832 1328 832
WIRE 1712 832 1712 720
WIRE 1712 832 1680 832
WIRE 2032 832 2000 832
WIRE 1440 848 1440 752
WIRE 1440 848 1408 848
WIRE 1616 848 1584 848
WIRE -1568 864 -1568 784
WIRE 1168 864 1168 832
WIRE 2272 864 2272 816
WIRE 736 880 736 832
WIRE 784 880 784 832
WIRE 1504 880 1504 848
WIRE 1856 880 1856 832
WIRE 1920 880 1920 832
WIRE 2032 880 2032 832
WIRE 1584 896 1584 848
WIRE 1616 896 1616 848
WIRE 2352 896 2352 816
WIRE 2416 896 2416 864
WIRE -304 912 -304 784
WIRE 2416 928 2416 896
WIRE -1568 944 -1568 864
WIRE 576 944 576 880
WIRE 576 944 416 944
WIRE 592 944 576 944
WIRE -384 960 -400 960
WIRE -368 960 -384 960
WIRE 864 960 784 960
WIRE -384 1008 -384 960
WIRE -1568 1024 -1568 944
WIRE 416 1024 416 944
WIRE 560 1024 496 1024
WIRE 560 1040 560 1024
WIRE 864 1040 864 1024
WIRE 944 1040 864 1040
WIRE -304 1056 -304 1008
WIRE -304 1056 -320 1056
WIRE -1568 1072 -1568 1024
WIRE 416 1072 416 1024
WIRE 496 1088 496 1024
WIRE 944 1104 864 1104
WIRE 944 1120 944 1104
WIRE -1136 1504 -1136 1488
WIRE -1136 1504 -1168 1504
WIRE -1088 1504 -1088 1488
WIRE -1088 1504 -1136 1504
WIRE -1040 1504 -1088 1504
WIRE -912 1504 -912 1488
WIRE -912 1504 -960 1504
WIRE -896 1504 -912 1504
WIRE -592 1504 -624 1504
WIRE -512 1504 -512 1488
WIRE -1168 1520 -1168 1504
WIRE -1088 1520 -1088 1504
WIRE -2592 1536 -2752 1536
WIRE -2384 1536 -2528 1536
WIRE -1728 1536 -1728 1504
WIRE -1568 1536 -1568 1504
WIRE -960 1536 -960 1504
WIRE 1312 1536 1232 1536
WIRE 1408 1536 1312 1536
WIRE -912 1552 -912 1504
WIRE 1312 1552 1312 1536
WIRE -1888 1568 -1888 1536
WIRE -2656 1584 -2688 1584
WIRE -1728 1584 -1728 1536
WIRE -1568 1584 -1568 1536
WIRE -1312 1584 -1344 1584
WIRE -1216 1584 -1216 1568
WIRE -1216 1584 -1232 1584
WIRE -1168 1584 -1216 1584
WIRE -2656 1600 -2656 1584
WIRE -2656 1600 -2720 1600
WIRE -2416 1600 -2656 1600
WIRE 304 1600 128 1600
WIRE 384 1600 384 1584
WIRE 464 1600 448 1600
WIRE 480 1600 464 1600
WIRE 576 1600 544 1600
WIRE 1072 1600 576 1600
WIRE 1184 1600 1152 1600
WIRE 1680 1600 1664 1600
WIRE -592 1616 -592 1504
WIRE -512 1616 -512 1504
WIRE 576 1616 576 1600
WIRE 1888 1616 1872 1616
WIRE 1984 1616 1888 1616
WIRE 1312 1632 1232 1632
WIRE 976 1648 704 1648
WIRE 1232 1648 1232 1632
WIRE -2720 1664 -2720 1600
WIRE -2688 1664 -2720 1664
WIRE -2416 1664 -2416 1600
WIRE -2416 1664 -2432 1664
WIRE -2368 1664 -2416 1664
WIRE -2272 1664 -2304 1664
WIRE -2240 1664 -2272 1664
WIRE -2160 1664 -2176 1664
WIRE -2064 1664 -2160 1664
WIRE -512 1664 -512 1616
WIRE -2064 1680 -2064 1664
WIRE 384 1680 384 1600
WIRE 464 1680 464 1600
WIRE 704 1696 704 1648
WIRE 704 1696 576 1696
WIRE 768 1696 752 1696
WIRE -2272 1712 -2272 1664
WIRE -2160 1712 -2160 1664
WIRE -880 1712 -1008 1712
WIRE 1408 1712 1408 1536
WIRE 1600 1712 1408 1712
WIRE 1680 1712 1680 1680
WIRE 1712 1712 1680 1712
WIRE -2752 1728 -2752 1536
WIRE -2688 1728 -2752 1728
WIRE -2384 1728 -2384 1536
WIRE -2384 1728 -2432 1728
WIRE 1808 1728 1776 1728
WIRE 1888 1728 1888 1696
WIRE 1984 1728 1984 1696
WIRE 1984 1728 1888 1728
WIRE 1712 1744 1680 1744
WIRE 2608 1744 2608 1664
WIRE 2672 1744 2672 1664
WIRE -2752 1760 -2752 1728
WIRE 752 1776 656 1776
WIRE 816 1776 752 1776
WIRE -2688 1792 -2704 1792
WIRE -2416 1792 -2432 1792
WIRE -1008 1792 -1008 1712
WIRE -976 1792 -1008 1792
WIRE 1408 1792 1408 1712
WIRE 1408 1792 1232 1792
WIRE -2704 1808 -2704 1792
WIRE -2416 1808 -2416 1792
WIRE -880 1808 -880 1712
WIRE -880 1808 -912 1808
WIRE 752 1808 752 1776
WIRE 2448 1824 2368 1824
WIRE 2528 1824 2528 1744
WIRE 2672 1824 2672 1744
WIRE 2672 1824 2608 1824
WIRE -1472 1840 -1504 1840
WIRE -1360 1840 -1408 1840
WIRE -2752 1856 -2752 1824
WIRE -2688 1856 -2752 1856
WIRE -2192 1856 -2432 1856
WIRE -2080 1856 -2192 1856
WIRE 576 1856 576 1776
WIRE 656 1856 576 1856
WIRE 896 1856 816 1856
WIRE 3072 1856 2960 1856
WIRE -976 1872 -976 1824
WIRE 304 1872 208 1872
WIRE 384 1872 384 1856
WIRE 464 1872 448 1872
WIRE 976 1872 976 1648
WIRE 1056 1872 1056 1792
WIRE 1136 1872 1136 1792
WIRE 1328 1872 1232 1872
WIRE 1520 1872 1328 1872
WIRE 1680 1872 1680 1744
WIRE 1712 1872 1680 1872
WIRE 1808 1872 1808 1728
WIRE 1808 1872 1792 1872
WIRE 2368 1872 2368 1824
WIRE -176 1888 -192 1888
WIRE 2528 1888 2528 1824
WIRE 2608 1888 2528 1888
WIRE 2672 1888 2672 1824
WIRE -592 1904 -624 1904
WIRE -512 1904 -512 1888
WIRE -480 1904 -512 1904
WIRE -2752 1920 -2752 1856
WIRE -2272 1920 -2272 1776
WIRE -2272 1920 -2752 1920
WIRE -1600 1920 -1600 1872
WIRE -1504 1920 -1600 1920
WIRE 64 1920 64 1904
WIRE 128 1920 128 1600
WIRE 128 1920 64 1920
WIRE -1360 1936 -1360 1920
WIRE 752 1936 752 1888
WIRE 752 1936 656 1936
WIRE 816 1936 752 1936
WIRE 64 1952 64 1920
WIRE 208 1952 208 1872
WIRE 384 1952 384 1872
WIRE 464 1952 464 1872
WIRE 896 1952 896 1856
WIRE 976 1952 976 1936
WIRE 1056 1952 976 1952
WIRE 1136 1952 1136 1872
WIRE 1232 1952 1136 1952
WIRE 1328 1952 1232 1952
WIRE 1888 1952 1888 1728
WIRE 1920 1952 1888 1952
WIRE 2960 1952 2960 1856
WIRE 2976 1952 2960 1952
WIRE -880 1968 -1008 1968
WIRE 1520 1968 1520 1936
WIRE 2016 1968 1984 1968
WIRE 2096 1968 2080 1968
WIRE 2368 1968 2368 1872
WIRE 2368 1968 2320 1968
WIRE 2432 1968 2432 1872
WIRE 2528 1968 2528 1888
WIRE 2528 1968 2512 1968
WIRE 2560 1968 2528 1968
WIRE 2800 1968 2752 1968
WIRE 3072 1968 3072 1856
WIRE 3072 1968 3040 1968
WIRE 3232 1968 3216 1968
WIRE 1920 1984 1888 1984
WIRE 2672 1984 2672 1888
WIRE 2672 1984 2624 1984
WIRE 2752 1984 2752 1968
WIRE 2752 1984 2672 1984
WIRE 2800 1984 2800 1968
WIRE 2976 1984 2960 1984
WIRE -1888 2000 -1904 2000
WIRE -1760 2000 -1760 1984
WIRE -1760 2000 -1808 2000
WIRE -1744 2000 -1760 2000
WIRE -1600 2000 -1664 2000
WIRE -1504 2000 -1600 2000
WIRE -1456 2000 -1504 2000
WIRE -1408 2000 -1456 2000
WIRE -1296 2000 -1312 2000
WIRE -1232 2000 -1296 2000
WIRE -192 2000 -192 1888
WIRE -192 2000 -208 2000
WIRE -112 2000 -112 1888
WIRE 0 2000 -48 2000
WIRE 304 2000 272 2000
WIRE 3216 2000 3216 1968
WIRE -592 2016 -592 1904
WIRE -512 2016 -512 1904
WIRE 656 2016 640 2016
WIRE 752 2016 656 2016
WIRE 976 2032 976 2016
WIRE 976 2032 896 2032
WIRE 1328 2032 1232 2032
WIRE 1520 2032 1328 2032
WIRE 2960 2032 2960 1984
WIRE -1008 2048 -1008 1968
WIRE -976 2048 -1008 2048
WIRE -208 2048 -224 2048
WIRE -48 2048 -48 2000
WIRE 304 2048 304 2000
WIRE 1680 2048 1680 2016
WIRE 1712 2048 1680 2048
WIRE 1808 2048 1792 2048
WIRE -880 2064 -880 1968
WIRE -880 2064 -912 2064
WIRE -864 2064 -880 2064
WIRE -512 2064 -512 2016
WIRE 2016 2064 2016 1968
WIRE 2080 2064 2080 1968
WIRE 2592 2064 2496 2064
WIRE 0 2080 0 2000
WIRE 64 2080 64 2048
WIRE 1312 2112 1232 2112
WIRE 1584 2112 1312 2112
WIRE 1888 2112 1888 1984
WIRE 1920 2112 1888 2112
WIRE 2016 2112 2016 2064
WIRE 2016 2112 2000 2112
WIRE -976 2128 -976 2080
WIRE -144 2128 -208 2128
WIRE -48 2128 -144 2128
WIRE 304 2128 -48 2128
WIRE 1312 2128 1312 2112
WIRE 2496 2128 2496 2064
WIRE 2592 2128 2592 2064
WIRE -208 2144 -208 2128
WIRE 2768 2160 2768 2128
WIRE 2768 2160 2752 2160
WIRE 2880 2160 2880 1984
WIRE 2960 2160 2880 2160
WIRE -144 2176 -144 2128
WIRE 64 2176 64 2080
WIRE 64 2176 16 2176
WIRE 112 2176 64 2176
WIRE 208 2176 208 2048
WIRE 208 2176 176 2176
WIRE 256 2176 208 2176
WIRE 464 2176 464 1952
WIRE 480 2176 464 2176
WIRE 896 2176 896 2112
WIRE 896 2176 544 2176
WIRE 1072 2176 896 2176
WIRE 1184 2176 1152 2176
WIRE 1680 2176 1680 2048
WIRE 1712 2176 1680 2176
WIRE 1808 2192 1808 2048
WIRE 1808 2192 1776 2192
WIRE 1888 2192 1888 2112
WIRE 1920 2192 1888 2192
WIRE 2016 2192 2016 2112
WIRE 2016 2192 2000 2192
WIRE 64 2208 64 2176
WIRE 208 2208 208 2176
WIRE 1312 2208 1232 2208
WIRE 1584 2208 1584 2112
WIRE 1600 2208 1584 2208
WIRE 1712 2208 1680 2208
WIRE 1232 2224 1232 2208
WIRE 2496 2224 2496 2128
WIRE 2560 2224 2560 2128
WIRE 2752 2224 2752 2160
WIRE 2960 2224 2960 2160
WIRE 1680 2240 1680 2208
WIRE 2672 2240 2672 2128
WIRE 2752 2240 2752 2224
WIRE 2960 2256 2960 2224
WIRE 368 2288 368 2000
WIRE 416 2288 368 2288
WIRE -144 2304 -144 2272
WIRE -144 2304 -208 2304
WIRE 16 2304 16 2256
WIRE 16 2304 -144 2304
WIRE 64 2304 64 2288
WIRE 64 2304 16 2304
WIRE 208 2304 208 2288
WIRE 208 2304 64 2304
WIRE 256 2304 256 2256
WIRE 256 2304 208 2304
WIRE 1680 2320 1664 2320
WIRE 2496 2320 2496 2224
WIRE 2496 2320 2448 2320
WIRE 2560 2320 2560 2224
WIRE 2640 2320 2560 2320
WIRE 2560 2336 2560 2320
WIRE 2752 2368 2752 2240
WIRE 2768 2368 2752 2368
WIRE 64 2384 16 2384
WIRE 368 2384 368 2288
WIRE 368 2384 64 2384
WIRE 400 2384 368 2384
WIRE 480 2384 480 2288
WIRE 2016 2384 2016 2192
WIRE 2016 2384 480 2384
WIRE 2496 2432 2496 2320
WIRE 2560 2432 2560 2416
WIRE 2592 2432 2592 2416
WIRE 2640 2432 2640 2320
WIRE 2640 2432 2592 2432
WIRE 144 2480 48 2480
WIRE 224 2480 144 2480
WIRE 304 2480 224 2480
WIRE 368 2480 368 2448
WIRE 368 2480 304 2480
WIRE 2560 2480 2560 2432
WIRE 2608 2480 2560 2480
WIRE 2320 2512 2320 1968
WIRE 2416 2512 2416 2432
WIRE 2416 2512 2400 2512
WIRE 2480 2512 2416 2512
WIRE 48 2560 -48 2560
WIRE 224 2560 224 2544
WIRE 224 2560 144 2560
WIRE 304 2560 304 2544
WIRE 304 2560 224 2560
WIRE 2608 2576 2608 2480
WIRE 2672 2576 2672 2480
WIRE 2672 2576 2608 2576
WIRE 2768 2576 2768 2368
WIRE 2768 2576 2752 2576
WIRE 2320 2608 2320 2512
WIRE 2416 2608 2416 2512
WIRE 2416 2608 2400 2608
WIRE 2448 2608 2416 2608
WIRE 2544 2624 2544 2512
WIRE 2544 2624 2512 2624
WIRE 2832 2624 2832 2224
WIRE 2832 2624 2544 2624
WIRE 144 2640 144 2560
WIRE 144 2640 48 2640
FLAG -1568 1152 0
FLAG -1568 624 in
FLAG -1648 1152 0
FLAG -1504 624 in1
FLAG -1504 704 in2
FLAG -1504 784 in3
FLAG -1504 864 in4
FLAG -1504 944 in5
FLAG -1504 1024 in6
FLAG -1088 624 in1
FLAG -1648 1072 9V
FLAG -960 784 0
FLAG -1040 688 0
FLAG -848 688 0
FLAG -784 720 0
FLAG -1872 1376 0
FLAG -1872 1296 VCC1
FLAG -1456 2000 VEE1
FLAG -1504 1776 0
FLAG -1600 1936 0
FLAG -1600 1808 0
FLAG -1232 2000 VEE2
FLAG -1296 1936 0
FLAG -1344 1648 0
FLAG -1088 1584 0
FLAG -32 736 VDD1
FLAG -32 800 0
FLAG -1568 1504 VCC3
FLAG -1344 1504 VCC2
FLAG 416 1136 0
FLAG 336 1024 VDD5
FLAG -1136 1488 VDD1
FLAG -1088 1488 VDD5
FLAG 560 1136 0
FLAG -960 1616 0
FLAG -912 1616 0
FLAG -912 1488 Vr2
FLAG -896 1504 Vr1
FLAG -944 2032 VDD1
FLAG -944 2096 0
FLAG -1056 2080 Vr1
FLAG -976 2192 0
FLAG -944 1776 VDD5
FLAG -944 1840 0
FLAG -1056 1824 Vr2
FLAG -976 1936 0
FLAG -800 1808 VB2
FLAG -864 2064 VB1
FLAG -736 720 VB1
FLAG -672 864 0
FLAG -624 704 0
FLAG -512 704 0
FLAG -416 560 VDD1
FLAG -416 880 0
FLAG -304 640 VDD1
FLAG -384 1104 0
FLAG -304 1216 0
FLAG -480 960 VDD1
FLAG -160 912 Vr1
FLAG -80 896 0
FLAG 368 720 VDD1
FLAG 368 784 0
FLAG 240 896 Vr1
FLAG 320 880 0
FLAG 208 768 in2
FLAG 160 608 0
FLAG 592 944 VB3
FLAG 784 1104 0
FLAG 864 1184 0
FLAG 944 1264 0
FLAG 736 960 0
FLAG 880 896 0
FLAG 960 896 0
FLAG 1168 944 0
FLAG 720 496 VDD5
FLAG 912 720 0
FLAG 1152 592 VDD5
FLAG 1376 816 VDD5
FLAG 1376 880 0
FLAG 1344 864 Vr2
FLAG 1504 1104 0
FLAG 1648 800 VDD5
FLAG 1648 864 0
FLAG 1584 976 Vr2
FLAG 1616 960 0
FLAG 1856 960 0
FLAG 2064 784 VDD1
FLAG 2064 848 0
FLAG 1920 960 Vr2
FLAG 2032 944 0
FLAG 2272 944 VB3
FLAG 2416 1008 0
FLAG 2496 960 0
FLAG 2400 560 VDD5
FLAG 2512 704 0
FLAG -624 1504 VCC2
FLAG -512 1728 0
FLAG -512 1488 VDD2
FLAG -624 1904 VCC2
FLAG -512 2128 0
FLAG -512 1888 VDD3
FLAG -480 1904 VDD4
FLAG -1728 1504 VCC2
FLAG -208 2000 in3
FLAG -224 2048 VDD2
FLAG -64 2384 0
FLAG -48 2560 0
FLAG 64 1824 VDD2
FLAG 208 1792 VDD2
FLAG 384 1792 VDD2
FLAG 304 1664 0
FLAG 384 1520 VDD2
FLAG 640 2016 VEE2
FLAG 768 1696 0
FLAG 1056 1728 VCC3
FLAG 1056 2016 0
FLAG 1136 2016 0
FLAG 1232 2288 0
FLAG 1312 2288 0
FLAG 1232 1712 0
FLAG 1312 1712 0
FLAG 1744 2160 VDD2
FLAG 1744 2224 0
FLAG 1744 1760 VDD2
FLAG 1744 1696 0
FLAG 1664 2320 VB1
FLAG 1664 1600 VB1
FLAG 1952 2000 VDD2
FLAG 1952 1936 0
FLAG 1872 1616 VB1
FLAG 368 2560 0
FLAG 2480 2592 VDD4
FLAG 2480 2656 0
FLAG 2448 2640 VB2
FLAG 2592 1952 VDD4
FLAG 2592 2016 0
FLAG 2560 2000 VB2
FLAG 2320 1968 in4
FLAG 3008 1936 VDD4
FLAG 3008 2000 0
FLAG 2960 2096 0
FLAG 2960 2336 VB2
FLAG 3216 2080 0
FLAG -2160 1776 0
FLAG -2688 1584 VCC1
FLAG -2704 1808 0
FLAG -2416 1808 0
FLAG -1888 1648 0
FLAG -1904 1920 0
FLAG -1728 1648 0
FLAG -2192 1920 0
FLAG -1760 1920 0
FLAG -2080 1936 0
FLAG -2064 1760 0
FLAG -1568 1648 0
SYMBOL voltage -1568 1056 R0
WINDOW 123 24 124 Left 2
WINDOW 39 0 0 Left 2
SYMATTR Value2 AC 1V
SYMATTR InstName V1
SYMATTR Value SINE(0 0.1V 1kHz)
SYMBOL voltage -1648 1056 R0
WINDOW 123 0 0 Left 0
WINDOW 39 0 0 Left 0
SYMATTR InstName V2
SYMATTR Value 9
SYMBOL cap -1504 688 R90
WINDOW 0 0 32 VBottom 2
WINDOW 3 32 32 VTop 2
SYMATTR InstName C998
SYMATTR Value 100µ
SYMBOL cap -1504 768 R90
WINDOW 0 0 32 VBottom 2
WINDOW 3 32 32 VTop 2
SYMATTR InstName C997
SYMATTR Value 100µ
SYMBOL cap -1504 848 R90
WINDOW 0 0 32 VBottom 2
WINDOW 3 32 32 VTop 2
SYMATTR InstName C996
SYMATTR Value 100µ
SYMBOL cap -1504 608 R90
WINDOW 0 0 32 VBottom 2
WINDOW 3 32 32 VTop 2
SYMATTR InstName C999
SYMATTR Value 100µ
SYMBOL cap -1504 928 R90
WINDOW 0 0 32 VBottom 2
WINDOW 3 32 32 VTop 2
SYMATTR InstName C995
SYMATTR Value 100µ
SYMBOL cap -1504 1008 R90
WINDOW 0 0 32 VBottom 2
WINDOW 3 32 32 VTop 2
SYMATTR InstName C994
SYMATTR Value 100µ
SYMBOL cap -1024 688 R180
WINDOW 0 24 56 Left 2
WINDOW 3 24 8 Left 2
SYMATTR InstName C60
SYMATTR Value 47p
SYMBOL npn -1264 1568 R270
WINDOW 0 62 41 Left 2
SYMATTR InstName Q6
SYMATTR Value 2N5089
SYMBOL res -976 720 M180
WINDOW 0 38 66 Left 2
WINDOW 3 36 40 Left 2
SYMATTR InstName R4
SYMATTR Value 3.3Meg
SYMBOL res -944 608 R90
WINDOW 0 0 56 VBottom 2
WINDOW 3 32 56 VTop 2
SYMATTR InstName R73
SYMATTR Value 1k
SYMBOL Opamps\\UniversalOpamp2 -32 768 R0
WINDOW 0 19 -24 Left 2
SYMATTR InstName ICd2
SYMBOL res -976 800 M180
WINDOW 0 38 66 Left 2
WINDOW 3 36 40 Left 2
SYMATTR InstName R5
SYMATTR Value 1.5Meg
SYMBOL cap -864 688 M180
WINDOW 0 24 56 Left 2
WINDOW 3 24 8 Left 2
SYMATTR InstName C68
SYMATTR Value 47p
SYMBOL TVSdiode -800 656 R0
SYMATTR InstName D7
SYMBOL cap -672 608 R90
WINDOW 0 0 32 VBottom 2
WINDOW 3 32 32 VTop 2
SYMATTR InstName C5
SYMATTR Value 220n
SYMBOL res -688 816 M180
WINDOW 0 38 66 Left 2
WINDOW 3 36 40 Left 2
SYMATTR InstName R7
SYMATTR Value 1.5Meg
SYMBOL voltage -1872 1280 R0
WINDOW 123 0 0 Left 0
WINDOW 39 0 0 Left 0
WINDOW 3 -18 58 Left 2
SYMATTR Value 8.9
SYMATTR InstName V4
SYMBOL pnp -1408 1936 M90
WINDOW 0 61 32 Left 2
WINDOW 3 45 63 Left 2
SYMATTR InstName Q7
SYMATTR Value BC857C
SYMBOL cap -1584 2000 R180
WINDOW 0 24 56 Left 2
WINDOW 3 24 8 Left 2
SYMATTR InstName C85
SYMATTR Value 10µ
SYMBOL res -1488 2016 R180
WINDOW 0 38 66 Left 2
WINDOW 3 36 40 Left 2
SYMATTR InstName R29
SYMATTR Value 3.3k
SYMBOL res -1488 1936 R180
WINDOW 0 38 66 Left 2
WINDOW 3 36 40 Left 2
SYMATTR InstName R30
SYMATTR Value 47k
SYMBOL cap -1488 1840 R180
WINDOW 0 24 56 Left 2
WINDOW 3 24 8 Left 2
SYMATTR InstName C84
SYMATTR Value 10µ
SYMBOL zener -1584 1872 R180
WINDOW 0 24 64 Left 2
WINDOW 3 33 23 Left 2
SYMATTR InstName ZD1
SYMATTR Value BZT52H-B5V1
SYMATTR Description Diode
SYMATTR Type diode
SYMBOL diode -1408 1824 R90
WINDOW 0 0 32 VBottom 2
WINDOW 3 32 32 VTop 2
SYMATTR InstName D5
SYMATTR Value 1N4148
SYMBOL res -1376 1936 M180
WINDOW 0 38 66 Left 2
WINDOW 3 36 40 Left 2
SYMATTR InstName R31
SYMATTR Value 100
SYMBOL cap -1312 2000 M180
WINDOW 0 24 56 Left 2
WINDOW 3 41 33 Left 2
SYMATTR InstName C27
SYMATTR Value 100n
SYMBOL res -1328 1600 R180
WINDOW 0 38 66 Left 2
WINDOW 3 36 40 Left 2
SYMATTR InstName R20
SYMATTR Value 2.2k
SYMBOL res -1248 1488 R90
WINDOW 0 0 56 VBottom 2
WINDOW 3 32 56 VTop 2
SYMATTR InstName R75
SYMATTR Value 22
SYMBOL res -1328 1600 R270
WINDOW 0 32 56 VTop 2
WINDOW 3 0 56 VBottom 2
SYMATTR InstName R78
SYMATTR Value 220
SYMBOL cap -1328 1648 R180
WINDOW 0 24 56 Left 2
WINDOW 3 41 33 Left 2
SYMATTR InstName C20
SYMATTR Value 220µ
SYMBOL diode -1184 1520 R0
WINDOW 3 -49 83 Left 2
SYMATTR Value 1N4148
SYMATTR InstName D11
SYMBOL cap -1104 1584 M180
WINDOW 0 24 56 Left 2
WINDOW 3 24 8 Left 2
SYMATTR InstName C83
SYMATTR Value 10µ
SYMBOL schottky -2368 1680 R270
WINDOW 0 32 32 VTop 2
WINDOW 3 0 32 VBottom 2
SYMATTR InstName D9
SYMATTR Value 1N5819
SYMATTR Description Diode
SYMATTR Type diode
SYMBOL schottky -2240 1680 R270
WINDOW 0 32 32 VTop 2
WINDOW 3 0 32 VBottom 2
SYMATTR InstName D10
SYMATTR Value 1N5819
SYMATTR Description Diode
SYMATTR Type diode
SYMBOL res 432 1008 R90
WINDOW 0 0 56 VBottom 2
WINDOW 3 32 56 VTop 2
SYMATTR InstName R106
SYMATTR Value 12k
SYMBOL cap 400 1136 M180
WINDOW 0 24 56 Left 2
WINDOW 3 24 8 Left 2
SYMATTR InstName C125
SYMATTR Value 10µ
SYMBOL res 512 1008 R90
WINDOW 0 0 56 VBottom 2
WINDOW 3 32 56 VTop 2
SYMATTR InstName R105
SYMATTR Value 1k
SYMBOL npn 496 1040 R0
WINDOW 0 62 41 Left 2
SYMATTR InstName Q101
SYMATTR Value 2N5089
SYMBOL res -944 1488 R90
WINDOW 0 0 56 VBottom 2
WINDOW 3 32 56 VTop 2
SYMATTR InstName R28
SYMATTR Value 10k
SYMBOL res -944 1632 R180
WINDOW 0 38 66 Left 2
WINDOW 3 36 40 Left 2
SYMATTR InstName R26
SYMATTR Value 10k
SYMBOL cap -928 1616 M180
WINDOW 0 24 56 Left 2
WINDOW 3 24 8 Left 2
SYMATTR InstName C82
SYMATTR Value 10µ
SYMBOL Opamps\\UniversalOpamp2 -944 2064 R0
WINDOW 0 19 -24 Left 2
SYMATTR InstName ICc2
SYMBOL res -960 2064 R90
WINDOW 0 0 56 VBottom 2
WINDOW 3 32 56 VTop 2
SYMATTR InstName R25
SYMATTR Value 47k
SYMBOL cap -992 2192 M180
WINDOW 0 24 56 Left 2
WINDOW 3 24 8 Left 2
SYMATTR InstName C24
SYMATTR Value 1µ
SYMBOL Opamps\\UniversalOpamp2 -944 1808 R0
WINDOW 0 7 50 Left 2
SYMATTR InstName ICb104
SYMBOL res -960 1808 R90
WINDOW 0 0 56 VBottom 2
WINDOW 3 32 56 VTop 2
SYMATTR InstName R172
SYMATTR Value 47k
SYMBOL cap -992 1936 M180
WINDOW 0 24 56 Left 2
WINDOW 3 24 8 Left 2
SYMATTR InstName C162
SYMATTR Value 1µ
SYMBOL res -784 1792 R90
WINDOW 0 0 56 VBottom 2
WINDOW 3 32 56 VTop 2
SYMATTR InstName R155
SYMATTR Value 100
SYMBOL res -720 816 R180
WINDOW 0 38 66 Left 2
WINDOW 3 36 40 Left 2
SYMATTR InstName R9
SYMATTR Value 100k
SYMBOL cap -656 864 R180
WINDOW 0 24 56 Left 2
WINDOW 3 24 8 Left 2
SYMATTR InstName C76
SYMATTR Value 10µ
SYMBOL diode -640 704 M180
WINDOW 0 24 64 Left 2
WINDOW 3 24 0 Left 2
SYMATTR InstName D3
SYMATTR Value 1N4148
SYMBOL res -496 608 R90
WINDOW 0 0 56 VBottom 2
WINDOW 3 32 56 VTop 2
SYMATTR InstName R1
SYMATTR Value 470
SYMBOL cap -528 704 M180
WINDOW 0 24 56 Left 2
WINDOW 3 24 8 Left 2
SYMATTR InstName C6
SYMATTR Value 150p
SYMBOL njf -464 560 R0
WINDOW 3 59 1 Left 2
SYMATTR Value 2SK3666_3
SYMATTR InstName Q1
SYMBOL res -400 784 R180
WINDOW 0 38 66 Left 2
WINDOW 3 36 40 Left 2
SYMATTR InstName R10
SYMATTR Value 39k
SYMBOL res -400 896 R180
WINDOW 0 38 66 Left 2
WINDOW 3 36 40 Left 2
SYMATTR InstName R11
SYMATTR Value 68k
SYMBOL cap -336 768 R90
WINDOW 0 0 32 VBottom 2
WINDOW 3 32 32 VTop 2
SYMATTR InstName C75
SYMATTR Value 10µ
SYMBOL npn -368 640 R0
WINDOW 0 62 41 Left 2
SYMATTR InstName Q2
SYMATTR Value 2N5089
SYMBOL npn -368 912 R0
WINDOW 0 62 41 Left 2
SYMATTR InstName Q3
SYMATTR Value 2N5089
SYMBOL npn -320 1008 M0
WINDOW 0 62 41 Left 2
SYMATTR InstName Q4
SYMATTR Value 2N5089
SYMBOL res -320 1040 R0
SYMATTR InstName R14
SYMATTR Value 220
SYMBOL res -320 1120 R0
SYMATTR InstName R15
SYMATTR Value 1k
SYMBOL res -496 944 M90
WINDOW 0 0 56 VBottom 2
WINDOW 3 32 56 VTop 2
SYMATTR InstName R8
SYMATTR Value 100k
SYMBOL res -208 768 R90
WINDOW 0 0 56 VBottom 2
WINDOW 3 32 56 VTop 2
SYMATTR InstName R12
SYMATTR Value 100
SYMBOL cap -160 768 R90
WINDOW 0 0 32 VBottom 2
WINDOW 3 32 32 VTop 2
SYMATTR InstName C15
SYMATTR Value 220n
SYMBOL res -144 928 R180
WINDOW 0 38 66 Left 2
WINDOW 3 36 40 Left 2
SYMATTR InstName R19
SYMATTR Value 220k
SYMBOL res -64 768 R90
WINDOW 0 0 56 VBottom 2
WINDOW 3 32 56 VTop 2
SYMATTR InstName R23
SYMATTR Value 100
SYMBOL cap -96 896 M180
WINDOW 0 24 56 Left 2
WINDOW 3 24 8 Left 2
SYMATTR InstName C22
SYMATTR Value 150p
SYMBOL Opamps\\UniversalOpamp2 368 752 R0
WINDOW 0 11 48 Left 2
SYMATTR InstName ICb2
SYMBOL res 256 912 R180
WINDOW 0 38 66 Left 2
WINDOW 3 36 40 Left 2
SYMATTR InstName R18
SYMATTR Value 100k
SYMBOL res 336 752 R90
WINDOW 0 0 56 VBottom 2
WINDOW 3 32 56 VTop 2
SYMATTR InstName R21
SYMATTR Value 1k
SYMBOL cap 304 880 M180
WINDOW 0 24 56 Left 2
WINDOW 3 24 8 Left 2
SYMATTR InstName C21
SYMATTR Value 1n
SYMBOL cap 432 640 R90
WINDOW 0 0 32 VBottom 2
WINDOW 3 32 32 VTop 2
SYMATTR InstName C23
SYMATTR Value 150p
SYMBOL res 400 592 R90
WINDOW 0 0 56 VBottom 2
WINDOW 3 32 56 VTop 2
SYMATTR InstName R24
SYMATTR Value 4.7k
SYMBOL res 320 592 R90
WINDOW 0 0 56 VBottom 2
WINDOW 3 32 56 VTop 2
SYMATTR InstName R76
SYMATTR Value 2.2k
SYMBOL cap 224 592 R90
WINDOW 0 0 32 VBottom 2
WINDOW 3 32 32 VTop 2
SYMATTR InstName C81
SYMATTR Value 47µ
SYMBOL res 528 736 R90
WINDOW 0 0 56 VBottom 2
WINDOW 3 32 56 VTop 2
SYMATTR InstName R111
SYMATTR Value 22k
SYMBOL cap 576 736 R90
WINDOW 0 0 32 VBottom 2
WINDOW 3 32 32 VTop 2
SYMATTR InstName C117
SYMATTR Value 470n
SYMBOL cap 576 640 R90
WINDOW 0 0 32 VBottom 2
WINDOW 3 32 32 VTop 2
SYMATTR InstName C116
SYMATTR Value 470n
SYMBOL res 592 896 R180
WINDOW 0 38 66 Left 2
WINDOW 3 36 40 Left 2
SYMATTR InstName R104
SYMATTR Value 10k
SYMBOL res 672 736 R90
WINDOW 0 0 56 VBottom 2
WINDOW 3 32 56 VTop 2
SYMATTR InstName R154
SYMATTR Value 2.2k
SYMBOL npn 672 704 R0
WINDOW 0 62 41 Left 2
SYMATTR InstName Q115
SYMATTR Value 2N5089
SYMBOL cap 736 640 R90
WINDOW 0 0 32 VBottom 2
WINDOW 3 32 32 VTop 2
SYMATTR InstName C152
SYMATTR Value 47p
SYMBOL diode 736 848 M270
WINDOW 0 32 32 VTop 2
WINDOW 3 0 32 VBottom 2
SYMATTR InstName D102
SYMATTR Value 1N4148
SYMBOL res 752 976 R180
WINDOW 0 38 66 Left 2
WINDOW 3 36 40 Left 2
SYMATTR InstName R103
SYMATTR Value 1k
SYMBOL cap 768 1024 M180
WINDOW 0 24 56 Left 2
WINDOW 3 24 8 Left 2
SYMATTR InstName C105
SYMATTR Value 470n
SYMBOL cap 848 1024 M180
WINDOW 0 24 56 Left 2
WINDOW 3 24 8 Left 2
SYMATTR InstName C104
SYMATTR Value 150n
SYMBOL cap 848 1104 M180
WINDOW 0 24 56 Left 2
WINDOW 3 24 8 Left 2
SYMATTR InstName C103
SYMATTR Value 47n
SYMBOL cap 928 1104 M180
WINDOW 0 24 56 Left 2
WINDOW 3 24 8 Left 2
SYMATTR InstName C102
SYMATTR Value 470n
SYMBOL cap 928 1184 M180
WINDOW 0 24 56 Left 2
WINDOW 3 24 8 Left 2
SYMATTR InstName C107
SYMATTR Value 220n
SYMBOL res 928 1280 M180
WINDOW 0 38 66 Left 2
WINDOW 3 36 40 Left 2
SYMATTR InstName R145
SYMATTR Value 750
SYMBOL res 800 1120 R180
WINDOW 0 38 66 Left 2
WINDOW 3 36 40 Left 2
SYMATTR InstName VRb101
SYMATTR Value 3.75k
SYMBOL res 880 1200 R180
WINDOW 0 38 66 Left 2
WINDOW 3 36 40 Left 2
SYMATTR InstName VRa101
SYMATTR Value 4.75k
SYMBOL res 768 976 M180
WINDOW 0 38 66 Left 2
WINDOW 3 36 40 Left 2
SYMATTR InstName R102
SYMATTR Value 82
SYMBOL res 896 816 R90
WINDOW 0 0 56 VBottom 2
WINDOW 3 32 56 VTop 2
SYMATTR InstName R101
SYMATTR Value 4.7k
SYMBOL cap 864 896 M180
WINDOW 0 24 56 Left 2
WINDOW 3 24 8 Left 2
SYMATTR InstName C108
SYMATTR Value 220n
SYMBOL cap 944 896 M180
WINDOW 0 24 56 Left 2
WINDOW 3 24 8 Left 2
SYMATTR InstName C109
SYMATTR Value 470n
SYMBOL cap 1088 816 R90
WINDOW 0 0 32 VBottom 2
WINDOW 3 32 32 VTop 2
SYMATTR InstName C110
SYMATTR Value 470n
SYMBOL res 1184 816 R90
WINDOW 0 0 56 VBottom 2
WINDOW 3 32 56 VTop 2
SYMATTR InstName R161
SYMATTR Value 4.7k
SYMBOL res 1184 960 R180
WINDOW 0 38 66 Left 2
WINDOW 3 36 40 Left 2
SYMATTR InstName R159
SYMATTR Value 4.7k
SYMBOL npn 1088 592 R0
WINDOW 0 62 41 Left 2
SYMATTR InstName Q117
SYMATTR Value 2N5089
SYMBOL res 720 672 M180
WINDOW 0 38 66 Left 2
WINDOW 3 36 40 Left 2
SYMATTR InstName R153
SYMATTR Value 1k
SYMBOL res 928 560 R90
WINDOW 0 0 56 VBottom 2
WINDOW 3 32 56 VTop 2
SYMATTR InstName R151
SYMATTR Value 47k
SYMBOL cap 896 720 M180
WINDOW 0 24 56 Left 2
WINDOW 3 24 8 Left 2
SYMATTR InstName C154
SYMATTR Value 330p
SYMBOL res 896 672 M180
WINDOW 0 38 66 Left 2
WINDOW 3 36 40 Left 2
SYMATTR InstName R160
SYMATTR Value 15k
SYMBOL res 720 592 M180
WINDOW 0 38 66 Left 2
WINDOW 3 36 40 Left 2
SYMATTR InstName R152
SYMATTR Value 4.7k
SYMBOL cap 1232 816 R90
WINDOW 0 0 32 VBottom 2
WINDOW 3 32 32 VTop 2
SYMATTR InstName C118
SYMATTR Value 470n
SYMBOL res 1328 816 R90
WINDOW 0 0 56 VBottom 2
WINDOW 3 32 56 VTop 2
SYMATTR InstName R164
SYMATTR Value 39k
SYMBOL Opamps\\UniversalOpamp2 1376 848 R0
WINDOW 0 -69 58 Left 2
SYMATTR InstName ICa104
SYMBOL cap 1440 736 R90
WINDOW 0 0 32 VBottom 2
WINDOW 3 32 32 VTop 2
SYMATTR InstName C160
SYMATTR Value 47p
SYMBOL res 1424 672 R90
WINDOW 0 0 56 VBottom 2
WINDOW 3 32 70 VTop 2
SYMATTR InstName R165
SYMATTR Value 33k
SYMBOL cap 1504 832 R90
WINDOW 0 0 32 VBottom 2
WINDOW 3 32 32 VTop 2
SYMATTR InstName C122
SYMATTR Value 33n
SYMBOL res 1520 976 R180
WINDOW 0 38 66 Left 2
WINDOW 3 36 40 Left 2
SYMATTR InstName R176
SYMATTR Value 6.8k
SYMBOL res 1520 1056 R180
WINDOW 0 38 66 Left 2
WINDOW 3 36 40 Left 2
SYMATTR InstName VR105
SYMATTR Value 15k
SYMBOL cap 1488 1104 M180
WINDOW 0 24 56 Left 2
WINDOW 3 24 8 Left 2
SYMATTR InstName C121
SYMATTR Value 220n
SYMBOL Opamps\\UniversalOpamp2 1648 832 R0
WINDOW 0 10 51 Left 2
SYMATTR InstName ICb103
SYMBOL res 1600 832 R90
WINDOW 0 0 56 VBottom 2
WINDOW 3 32 56 VTop 2
SYMATTR InstName R171
SYMATTR Value 1k
SYMBOL res 1600 992 R180
WINDOW 0 15 82 Left 2
WINDOW 3 19 48 Left 2
SYMATTR InstName R170
SYMATTR Value 470k
SYMBOL cap 1600 960 M180
WINDOW 0 24 56 Left 2
WINDOW 3 24 8 Left 2
SYMATTR InstName C159
SYMATTR Value 1n
SYMBOL res 1808 816 R90
WINDOW 0 0 56 VBottom 2
WINDOW 3 32 56 VTop 2
SYMATTR InstName R163
SYMATTR Value 470
SYMBOL cap 1856 816 R90
WINDOW 0 0 32 VBottom 2
WINDOW 3 32 32 VTop 2
SYMATTR InstName C115
SYMATTR Value 10µ
SYMBOL res 1872 976 R180
WINDOW 0 38 66 Left 2
WINDOW 3 36 40 Left 2
SYMATTR InstName VR103
SYMATTR Value 10k
SYMBOL cap 1920 816 R90
WINDOW 0 0 32 VBottom 2
WINDOW 3 32 32 VTop 2
SYMATTR InstName C106
SYMATTR Value 47n
SYMBOL Opamps\\UniversalOpamp2 2064 816 R0
WINDOW 0 8 48 Left 2
SYMATTR InstName ICa103
SYMBOL res 2016 816 R90
WINDOW 0 0 56 VBottom 2
WINDOW 3 32 56 VTop 2
SYMATTR InstName R169
SYMATTR Value 100
SYMBOL res 1904 976 M180
WINDOW 0 38 66 Left 2
WINDOW 3 36 40 Left 2
SYMATTR InstName R168
SYMATTR Value 470k
SYMBOL cap 2016 944 M180
WINDOW 0 24 56 Left 2
WINDOW 3 24 8 Left 2
SYMATTR InstName C158
SYMATTR Value 1n
SYMBOL res 2224 800 R90
WINDOW 0 0 56 VBottom 2
WINDOW 3 32 56 VTop 2
SYMATTR InstName R162
SYMATTR Value 100
SYMBOL cap 2272 800 R90
WINDOW 0 0 32 VBottom 2
WINDOW 3 32 32 VTop 2
SYMATTR InstName C119
SYMATTR Value 470n
SYMBOL res 2288 960 R180
WINDOW 0 38 66 Left 2
WINDOW 3 36 40 Left 2
SYMATTR InstName R146
SYMATTR Value 22k
SYMBOL npn 2352 768 R0
WINDOW 0 62 41 Left 2
SYMATTR InstName Q116
SYMATTR Value 2N5089
SYMBOL cap 2416 704 R90
WINDOW 0 0 32 VBottom 2
WINDOW 3 32 32 VTop 2
SYMATTR InstName C153
SYMATTR Value 47p
SYMBOL diode 2416 912 M270
WINDOW 0 32 32 VTop 2
WINDOW 3 0 32 VBottom 2
SYMATTR InstName D103
SYMATTR Value 1N4148
SYMBOL res 2432 1024 R180
WINDOW 0 38 66 Left 2
WINDOW 3 36 40 Left 2
SYMATTR InstName R158
SYMATTR Value 1k
SYMBOL res 2512 880 R90
WINDOW 0 0 56 VBottom 2
WINDOW 3 32 56 VTop 2
SYMATTR InstName R150
SYMATTR Value 1k
SYMBOL cap 2480 960 M180
WINDOW 0 24 56 Left 2
WINDOW 3 24 8 Left 2
SYMATTR InstName C111
SYMATTR Value 47µ
SYMBOL res 2400 736 M180
WINDOW 0 38 66 Left 2
WINDOW 3 36 40 Left 2
SYMATTR InstName R147
SYMATTR Value 3.3k
SYMBOL cap 2496 704 M180
WINDOW 0 24 56 Left 2
WINDOW 3 24 8 Left 2
SYMATTR InstName C34
SYMATTR Value 150p
SYMBOL res 2400 656 M180
WINDOW 0 38 66 Left 2
WINDOW 3 36 40 Left 2
SYMATTR InstName R149
SYMATTR Value 2.2k
SYMBOL res 2368 800 R90
WINDOW 0 0 56 VBottom 2
WINDOW 3 32 56 VTop 2
SYMATTR InstName R157
SYMATTR Value 2.2k
SYMBOL res -496 1488 R90
WINDOW 0 0 56 VBottom 2
WINDOW 3 32 56 VTop 2
SYMATTR InstName R82
SYMATTR Value 470
SYMBOL res -496 1600 R90
WINDOW 0 0 56 VBottom 2
WINDOW 3 32 56 VTop 2
SYMATTR InstName R83
SYMATTR Value 470
SYMBOL cap -496 1728 R180
WINDOW 0 24 56 Left 2
WINDOW 3 41 33 Left 2
SYMATTR InstName C31
SYMATTR Value 220µ
SYMBOL res -496 1888 R90
WINDOW 0 0 56 VBottom 2
WINDOW 3 32 56 VTop 2
SYMATTR InstName R77
SYMATTR Value 470
SYMBOL res -496 2000 R90
WINDOW 0 0 56 VBottom 2
WINDOW 3 32 56 VTop 2
SYMATTR InstName R79
SYMATTR Value 470
SYMBOL cap -496 2128 R180
WINDOW 0 24 56 Left 2
WINDOW 3 41 33 Left 2
SYMATTR InstName C18
SYMATTR Value 220µ
SYMBOL res -32 2144 R180
WINDOW 0 38 66 Left 2
WINDOW 3 36 40 Left 2
SYMATTR InstName R51
SYMATTR Value 100k
SYMBOL npn 0 1952 R0
WINDOW 0 62 13 Left 2
WINDOW 3 56 36 Left 2
SYMATTR InstName Q8
SYMATTR Value 2N5089