Version 4
SHEET 1 4260 1828
WIRE 2560 -1632 2176 -1632
WIRE 2720 -1632 2560 -1632
WIRE -416 -1616 -896 -1616
WIRE -352 -1616 -416 -1616
WIRE 1216 -1616 736 -1616
WIRE 1280 -1616 1216 -1616
WIRE 1536 -1552 1504 -1552
WIRE 1664 -1552 1600 -1552
WIRE 1760 -1552 1664 -1552
WIRE 2176 -1536 2176 -1632
WIRE 2560 -1536 2560 -1632
WIRE 2576 -1536 2560 -1536
WIRE 2672 -1536 2640 -1536
WIRE 2784 -1536 2784 -1584
WIRE 2784 -1536 2752 -1536
WIRE -896 -1520 -896 -1616
WIRE -416 -1520 -416 -1616
WIRE -384 -1520 -416 -1520
WIRE -288 -1520 -288 -1568
WIRE -288 -1520 -320 -1520
WIRE 736 -1520 736 -1616
WIRE 1216 -1520 1216 -1616
WIRE 1248 -1520 1216 -1520
WIRE 1344 -1520 1344 -1568
WIRE 1344 -1520 1312 -1520
WIRE 2112 -1472 2080 -1472
WIRE 2128 -1472 2112 -1472
WIRE 2352 -1472 2320 -1472
WIRE 2416 -1472 2352 -1472
WIRE 2496 -1472 2480 -1472
WIRE 2784 -1472 2784 -1536
WIRE 2784 -1472 2496 -1472
WIRE 2848 -1472 2784 -1472
WIRE 2944 -1472 2912 -1472
WIRE -960 -1456 -992 -1456
WIRE -944 -1456 -960 -1456
WIRE -704 -1456 -752 -1456
WIRE -640 -1456 -704 -1456
WIRE -576 -1456 -640 -1456
WIRE -352 -1456 -512 -1456
WIRE -288 -1456 -288 -1520
WIRE -288 -1456 -352 -1456
WIRE -224 -1456 -288 -1456
WIRE -96 -1456 -128 -1456
WIRE 64 -1456 -32 -1456
WIRE 160 -1456 144 -1456
WIRE 256 -1456 160 -1456
WIRE 384 -1456 256 -1456
WIRE 448 -1456 384 -1456
WIRE 672 -1456 640 -1456
WIRE 688 -1456 672 -1456
WIRE 928 -1456 880 -1456
WIRE 992 -1456 928 -1456
WIRE 1056 -1456 992 -1456
WIRE 1280 -1456 1120 -1456
WIRE 1344 -1456 1344 -1520
WIRE 1344 -1456 1280 -1456
WIRE 1408 -1456 1344 -1456
WIRE 1504 -1456 1504 -1552
WIRE 1536 -1456 1504 -1456
WIRE 1664 -1456 1664 -1552
WIRE 1664 -1456 1616 -1456
WIRE 2944 -1456 2944 -1472
WIRE 2784 -1440 2784 -1472
WIRE -704 -1424 -704 -1456
WIRE -288 -1424 -288 -1456
WIRE 256 -1424 256 -1456
WIRE 384 -1424 384 -1456
WIRE 928 -1424 928 -1456
WIRE 1344 -1424 1344 -1456
WIRE 1664 -1424 1664 -1456
WIRE 2112 -1408 2112 -1472
WIRE 2176 -1408 2176 -1440
WIRE 2224 -1408 2176 -1408
WIRE 2272 -1408 2272 -1440
WIRE 2272 -1408 2224 -1408
WIRE -960 -1392 -960 -1456
WIRE -896 -1392 -896 -1424
WIRE -848 -1392 -896 -1392
WIRE -800 -1392 -800 -1424
WIRE -800 -1392 -848 -1392
WIRE 672 -1392 672 -1456
WIRE 736 -1392 736 -1424
WIRE 784 -1392 736 -1392
WIRE 832 -1392 832 -1424
WIRE 832 -1392 784 -1392
WIRE 1760 -1392 1760 -1408
WIRE 1888 -1392 1760 -1392
WIRE 1952 -1392 1888 -1392
WIRE 2720 -1392 2688 -1392
WIRE 2416 -1376 2416 -1472
WIRE 2496 -1376 2496 -1472
WIRE -128 -1360 -128 -1456
WIRE -96 -1360 -128 -1360
WIRE 32 -1360 -16 -1360
WIRE 64 -1360 32 -1360
WIRE 160 -1360 160 -1456
WIRE 160 -1360 128 -1360
WIRE 1760 -1360 1760 -1392
WIRE 1888 -1360 1888 -1392
WIRE 2688 -1344 2688 -1392
WIRE -640 -1328 -640 -1456
WIRE -608 -1328 -640 -1328
WIRE -464 -1328 -528 -1328
WIRE -352 -1328 -352 -1456
WIRE -352 -1328 -384 -1328
WIRE 32 -1328 32 -1360
WIRE 160 -1328 160 -1360
WIRE 256 -1328 256 -1360
WIRE 384 -1328 384 -1360
WIRE 992 -1328 992 -1456
WIRE 1024 -1328 992 -1328
WIRE 1168 -1328 1104 -1328
WIRE 1280 -1328 1280 -1456
WIRE 1280 -1328 1248 -1328
WIRE 2352 -1280 2352 -1472
WIRE 2352 -1280 2144 -1280
WIRE 32 -1248 32 -1264
WIRE 96 -1248 32 -1248
WIRE 160 -1248 96 -1248
WIRE 96 -1232 96 -1248
WIRE 256 -1232 256 -1264
WIRE 384 -1232 384 -1264
WIRE 2144 -1216 2144 -1280
WIRE 2240 -1216 2208 -1216
WIRE 2272 -1216 2240 -1216
WIRE 2432 -1216 2336 -1216
WIRE 2464 -1216 2432 -1216
WIRE 2240 -1200 2240 -1216
WIRE 2432 -1200 2432 -1216
WIRE 2240 -1088 2240 -1120
WIRE 2528 -1088 2528 -1168
WIRE 2528 -1088 2240 -1088
WIRE 2560 -800 2176 -800
WIRE 2720 -800 2560 -800
WIRE -416 -784 -896 -784
WIRE -352 -784 -416 -784
WIRE 1216 -784 736 -784
WIRE 1280 -784 1216 -784
WIRE 1536 -720 1504 -720
WIRE 1664 -720 1600 -720
WIRE 1760 -720 1664 -720
WIRE 2176 -704 2176 -800
WIRE 2560 -704 2560 -800
WIRE 2576 -704 2560 -704
WIRE 2672 -704 2640 -704
WIRE 2784 -704 2784 -752
WIRE 2784 -704 2752 -704
WIRE -896 -688 -896 -784
WIRE -416 -688 -416 -784
WIRE -384 -688 -416 -688
WIRE -288 -688 -288 -736
WIRE -288 -688 -320 -688
WIRE 736 -688 736 -784
WIRE 1216 -688 1216 -784
WIRE 1248 -688 1216 -688
WIRE 1344 -688 1344 -736
WIRE 1344 -688 1312 -688
WIRE 2016 -640 1952 -640
WIRE 2112 -640 2080 -640
WIRE 2128 -640 2112 -640
WIRE 2352 -640 2320 -640
WIRE 2416 -640 2352 -640
WIRE 2496 -640 2480 -640
WIRE 2784 -640 2784 -704
WIRE 2784 -640 2496 -640
WIRE 2848 -640 2784 -640
WIRE 2944 -640 2912 -640
WIRE -960 -624 -992 -624
WIRE -944 -624 -960 -624
WIRE -704 -624 -752 -624
WIRE -640 -624 -704 -624
WIRE -576 -624 -640 -624
WIRE -352 -624 -512 -624
WIRE -288 -624 -288 -688
WIRE -288 -624 -352 -624
WIRE -128 -624 -288 -624
WIRE -96 -624 -128 -624
WIRE 64 -624 -32 -624
WIRE 160 -624 144 -624
WIRE 256 -624 160 -624
WIRE 384 -624 256 -624
WIRE 576 -624 384 -624
WIRE 672 -624 640 -624
WIRE 688 -624 672 -624
WIRE 928 -624 880 -624
WIRE 992 -624 928 -624
WIRE 1056 -624 992 -624
WIRE 1280 -624 1120 -624
WIRE 1344 -624 1344 -688
WIRE 1344 -624 1280 -624
WIRE 1504 -624 1504 -720
WIRE 1504 -624 1344 -624
WIRE 1536 -624 1504 -624
WIRE 1664 -624 1664 -720
WIRE 1664 -624 1616 -624
WIRE 2944 -624 2944 -640
WIRE 2784 -608 2784 -640
WIRE -704 -592 -704 -624
WIRE -288 -592 -288 -624
WIRE 256 -592 256 -624
WIRE 384 -592 384 -624
WIRE 928 -592 928 -624
WIRE 1344 -592 1344 -624
WIRE 1664 -592 1664 -624
WIRE 2112 -576 2112 -640
WIRE 2176 -576 2176 -608
WIRE 2224 -576 2176 -576
WIRE 2272 -576 2272 -608
WIRE 2272 -576 2224 -576
WIRE -960 -560 -960 -624
WIRE -896 -560 -896 -592
WIRE -848 -560 -896 -560
WIRE -800 -560 -800 -592
WIRE -800 -560 -848 -560
WIRE 672 -560 672 -624
WIRE 736 -560 736 -592
WIRE 784 -560 736 -560
WIRE 832 -560 832 -592
WIRE 832 -560 784 -560
WIRE 1760 -560 1760 -576
WIRE 1888 -560 1760 -560
WIRE 1952 -560 1952 -640
WIRE 1952 -560 1888 -560
WIRE 2720 -560 2688 -560
WIRE 2416 -544 2416 -640
WIRE 2496 -544 2496 -640
WIRE -128 -528 -128 -624
WIRE -96 -528 -128 -528
WIRE 32 -528 -16 -528
WIRE 64 -528 32 -528
WIRE 160 -528 160 -624
WIRE 160 -528 128 -528
WIRE 1760 -528 1760 -560
WIRE 1888 -528 1888 -560
WIRE 2688 -512 2688 -560
WIRE -640 -496 -640 -624
WIRE -608 -496 -640 -496
WIRE -464 -496 -528 -496
WIRE -352 -496 -352 -624
WIRE -352 -496 -384 -496
WIRE 32 -496 32 -528
WIRE 160 -496 160 -528
WIRE 256 -496 256 -528
WIRE 384 -496 384 -528
WIRE 992 -496 992 -624
WIRE 1024 -496 992 -496
WIRE 1168 -496 1104 -496
WIRE 1280 -496 1280 -624
WIRE 1280 -496 1248 -496
WIRE 2352 -448 2352 -640
WIRE 2352 -448 2144 -448
WIRE 32 -416 32 -432
WIRE 96 -416 32 -416
WIRE 160 -416 96 -416
WIRE 96 -400 96 -416
WIRE 256 -400 256 -432
WIRE 384 -400 384 -432
WIRE 2144 -384 2144 -448
WIRE 2240 -384 2208 -384
WIRE 2272 -384 2240 -384
WIRE 2432 -384 2336 -384
WIRE 2464 -384 2432 -384
WIRE 2240 -368 2240 -384
WIRE 2432 -368 2432 -384
WIRE 2240 -256 2240 -288
WIRE 2528 -256 2528 -336
WIRE 2528 -256 2240 -256
WIRE 2560 48 2176 48
WIRE 2720 48 2560 48
WIRE -416 64 -896 64
WIRE -352 64 -416 64
WIRE 1216 64 736 64
WIRE 1280 64 1216 64
WIRE 1536 128 1504 128
WIRE 1664 128 1600 128
WIRE 1760 128 1664 128
WIRE 2176 144 2176 48
WIRE 2560 144 2560 48
WIRE 2576 144 2560 144
WIRE 2672 144 2640 144
WIRE 2784 144 2784 96
WIRE 2784 144 2752 144
WIRE -896 160 -896 64
WIRE -416 160 -416 64
WIRE -384 160 -416 160
WIRE -288 160 -288 112
WIRE -288 160 -320 160
WIRE 736 160 736 64
WIRE 1216 160 1216 64
WIRE 1248 160 1216 160
WIRE 1344 160 1344 112
WIRE 1344 160 1312 160
WIRE 2112 208 2080 208
WIRE 2128 208 2112 208
WIRE 2352 208 2320 208
WIRE 2416 208 2352 208
WIRE 2496 208 2480 208
WIRE 2784 208 2784 144
WIRE 2784 208 2496 208
WIRE 2848 208 2784 208
WIRE 2944 208 2912 208
WIRE -960 224 -992 224
WIRE -944 224 -960 224
WIRE -704 224 -752 224
WIRE -640 224 -704 224
WIRE -576 224 -640 224
WIRE -352 224 -512 224
WIRE -288 224 -288 160
WIRE -288 224 -352 224
WIRE -224 224 -288 224
WIRE -96 224 -128 224
WIRE 64 224 -32 224
WIRE 160 224 144 224
WIRE 256 224 160 224
WIRE 384 224 256 224
WIRE 448 224 384 224
WIRE 672 224 640 224
WIRE 688 224 672 224
WIRE 928 224 880 224
WIRE 992 224 928 224
WIRE 1056 224 992 224
WIRE 1280 224 1120 224
WIRE 1344 224 1344 160
WIRE 1344 224 1280 224
WIRE 1408 224 1344 224
WIRE 1504 224 1504 128
WIRE 1536 224 1504 224
WIRE 1664 224 1664 128
WIRE 1664 224 1616 224
WIRE 2944 224 2944 208
WIRE 2784 240 2784 208
WIRE -704 256 -704 224
WIRE -288 256 -288 224
WIRE 256 256 256 224
WIRE 384 256 384 224
WIRE 928 256 928 224
WIRE 1344 256 1344 224
WIRE 1664 256 1664 224
WIRE 2112 272 2112 208
WIRE 2176 272 2176 240
WIRE 2224 272 2176 272
WIRE 2272 272 2272 240
WIRE 2272 272 2224 272
WIRE -960 288 -960 224
WIRE -896 288 -896 256
WIRE -848 288 -896 288
WIRE -800 288 -800 256
WIRE -800 288 -848 288
WIRE 672 288 672 224
WIRE 736 288 736 256
WIRE 784 288 736 288
WIRE 832 288 832 256
WIRE 832 288 784 288
WIRE 1760 288 1760 272
WIRE 1888 288 1760 288
WIRE 1952 288 1888 288
WIRE 2720 288 2688 288
WIRE 2416 304 2416 208
WIRE 2496 304 2496 208
WIRE -128 320 -128 224
WIRE -96 320 -128 320
WIRE 32 320 -16 320
WIRE 64 320 32 320
WIRE 160 320 160 224
WIRE 160 320 128 320
WIRE 224 320 160 320
WIRE 1760 320 1760 288
WIRE 1888 320 1888 288
WIRE 2688 336 2688 288
WIRE -640 352 -640 224
WIRE -608 352 -640 352
WIRE -464 352 -528 352
WIRE -352 352 -352 224
WIRE -352 352 -384 352
WIRE 32 352 32 320
WIRE 160 352 160 320
WIRE 256 352 256 320
WIRE 384 352 384 320
WIRE 992 352 992 224
WIRE 1024 352 992 352
WIRE 1168 352 1104 352
WIRE 1280 352 1280 224
WIRE 1280 352 1248 352
WIRE 2352 400 2352 208
WIRE 2352 400 2144 400
WIRE 32 432 32 416
WIRE 96 432 32 432
WIRE 160 432 96 432
WIRE 192 432 160 432
WIRE 96 448 96 432
WIRE 256 448 256 416
WIRE 384 448 384 416
WIRE 2144 464 2144 400
WIRE 2240 464 2208 464
WIRE 2272 464 2240 464
WIRE 2432 464 2336 464
WIRE 2464 464 2432 464
WIRE 2240 480 2240 464
WIRE 2432 480 2432 464
WIRE 224 528 224 320
WIRE 256 528 224 528
WIRE 352 528 320 528
WIRE 352 560 352 528
WIRE 2240 592 2240 560
WIRE 2528 592 2528 512
WIRE 2528 592 2240 592
WIRE 192 672 192 432
WIRE 256 672 192 672
WIRE 352 672 352 640
WIRE 352 672 320 672
WIRE 384 672 352 672
WIRE 2560 880 2176 880
WIRE 2720 880 2560 880
WIRE -416 896 -896 896
WIRE -352 896 -416 896
WIRE 1216 896 736 896
WIRE 1280 896 1216 896
WIRE 1536 960 1504 960
WIRE 1664 960 1600 960
WIRE 1760 960 1664 960
WIRE 2176 976 2176 880
WIRE 2560 976 2560 880
WIRE 2576 976 2560 976
WIRE 2672 976 2640 976
WIRE 2784 976 2784 928
WIRE 2784 976 2752 976
WIRE -896 992 -896 896
WIRE -416 992 -416 896
WIRE -384 992 -416 992
WIRE -288 992 -288 944
WIRE -288 992 -320 992
WIRE 736 992 736 896
WIRE 1216 992 1216 896
WIRE 1248 992 1216 992
WIRE 1344 992 1344 944
WIRE 1344 992 1312 992
WIRE 2016 1040 1952 1040
WIRE 2112 1040 2080 1040
WIRE 2128 1040 2112 1040
WIRE 2352 1040 2320 1040
WIRE 2416 1040 2352 1040
WIRE 2496 1040 2480 1040
WIRE 2784 1040 2784 976
WIRE 2784 1040 2496 1040
WIRE 2848 1040 2784 1040
WIRE 2944 1040 2912 1040
WIRE -960 1056 -992 1056
WIRE -944 1056 -960 1056
WIRE -704 1056 -752 1056
WIRE -640 1056 -704 1056
WIRE -576 1056 -640 1056
WIRE -352 1056 -512 1056
WIRE -288 1056 -288 992
WIRE -288 1056 -352 1056
WIRE -128 1056 -288 1056
WIRE -96 1056 -128 1056
WIRE 64 1056 -32 1056
WIRE 160 1056 144 1056
WIRE 256 1056 160 1056
WIRE 384 1056 256 1056
WIRE 576 1056 384 1056
WIRE 672 1056 640 1056
WIRE 688 1056 672 1056
WIRE 928 1056 880 1056
WIRE 992 1056 928 1056
WIRE 1056 1056 992 1056
WIRE 1280 1056 1120 1056
WIRE 1344 1056 1344 992
WIRE 1344 1056 1280 1056
WIRE 1504 1056 1504 960
WIRE 1504 1056 1344 1056
WIRE 1536 1056 1504 1056
WIRE 1664 1056 1664 960
WIRE 1664 1056 1616 1056
WIRE 2944 1056 2944 1040
WIRE 2784 1072 2784 1040
WIRE -704 1088 -704 1056
WIRE -288 1088 -288 1056
WIRE 256 1088 256 1056
WIRE 384 1088 384 1056
WIRE 928 1088 928 1056
WIRE 1344 1088 1344 1056
WIRE 1664 1088 1664 1056
WIRE 2112 1104 2112 1040
WIRE 2176 1104 2176 1072
WIRE 2224 1104 2176 1104
WIRE 2272 1104 2272 1072
WIRE 2272 1104 2224 1104
WIRE -960 1120 -960 1056
WIRE -896 1120 -896 1088
WIRE -848 1120 -896 1120
WIRE -800 1120 -800 1088
WIRE -800 1120 -848 1120
WIRE 672 1120 672 1056
WIRE 736 1120 736 1088
WIRE 784 1120 736 1120
WIRE 832 1120 832 1088
WIRE 832 1120 784 1120
WIRE 1760 1120 1760 1104
WIRE 1888 1120 1760 1120
WIRE 1952 1120 1952 1040
WIRE 1952 1120 1888 1120
WIRE 2720 1120 2688 1120
WIRE 2416 1136 2416 1040
WIRE 2496 1136 2496 1040
WIRE -128 1152 -128 1056
WIRE -96 1152 -128 1152
WIRE 32 1152 -16 1152
WIRE 64 1152 32 1152
WIRE 160 1152 160 1056
WIRE 160 1152 128 1152
WIRE 224 1152 160 1152
WIRE 1760 1152 1760 1120
WIRE 1888 1152 1888 1120
WIRE 2688 1168 2688 1120
WIRE -640 1184 -640 1056
WIRE -608 1184 -640 1184
WIRE -464 1184 -528 1184
WIRE -352 1184 -352 1056
WIRE -352 1184 -384 1184
WIRE 32 1184 32 1152
WIRE 160 1184 160 1152
WIRE 256 1184 256 1152
WIRE 384 1184 384 1152
WIRE 992 1184 992 1056
WIRE 1024 1184 992 1184
WIRE 1168 1184 1104 1184
WIRE 1280 1184 1280 1056
WIRE 1280 1184 1248 1184
WIRE 2352 1232 2352 1040
WIRE 2352 1232 2144 1232
WIRE -1728 1264 -1728 1216
WIRE -1664 1264 -1728 1264
WIRE -1488 1264 -1488 1216
WIRE -1488 1264 -1568 1264
WIRE -1408 1264 -1488 1264
WIRE 32 1264 32 1248
WIRE 96 1264 32 1264
WIRE 160 1264 96 1264
WIRE 192 1264 160 1264
WIRE 96 1280 96 1264
WIRE 256 1280 256 1248
WIRE 384 1280 384 1248
WIRE 2144 1296 2144 1232
WIRE 2240 1296 2208 1296
WIRE 2272 1296 2240 1296
WIRE 2432 1296 2336 1296
WIRE 2464 1296 2432 1296
WIRE 2240 1312 2240 1296
WIRE 2432 1312 2432 1296
WIRE -1616 1344 -1616 1328
WIRE -1616 1344 -1728 1344
WIRE -1600 1344 -1616 1344
WIRE -1616 1360 -1616 1344
WIRE -1408 1360 -1408 1344
WIRE -1280 1360 -1280 1328
WIRE -1280 1360 -1408 1360
WIRE 224 1360 224 1152
WIRE 256 1360 224 1360
WIRE 352 1360 320 1360
WIRE -1280 1376 -1280 1360
WIRE 352 1392 352 1360
WIRE 2240 1424 2240 1392
WIRE 2528 1424 2528 1344
WIRE 2528 1424 2240 1424
WIRE 192 1504 192 1264
WIRE 256 1504 192 1504
WIRE 352 1504 352 1472
WIRE 352 1504 320 1504
WIRE 384 1504 352 1504
FLAG -1616 1648 0
FLAG -1616 1568 in
FLAG -224 224 c1
FLAG -848 368 0
FLAG -704 400 0
FLAG -288 336 0
FLAG -960 368 4V
FLAG -800 160 8V
FLAG -896 -16 8V
FLAG -288 16 8V
FLAG -1056 224 in
FLAG 96 528 0
FLAG -128 224 in
FLAG 448 224 c2
FLAG 256 448 0
FLAG 384 448 0
FLAG 1408 224 c3
FLAG 784 368 0
FLAG 928 400 0
FLAG 1344 336 0
FLAG 672 368 4V
FLAG 832 160 8V
FLAG 736 -16 8V
FLAG 1344 16 8V
FLAG 576 224 in
FLAG 1664 320 0
FLAG 1760 464 0
FLAG 1888 400 0
FLAG 1952 288 c4
FLAG 1504 128 in
FLAG -1616 1424 0
FLAG -1488 1328 0
FLAG -1488 1216 8V
FLAG -1408 1440 0
FLAG -1280 1440 0
FLAG -1280 1328 4V
FLAG -1728 1216 9V
FLAG -1696 1648 0
FLAG -1696 1568 9V
FLAG 464 672 4V
FLAG 2224 352 0
FLAG 2112 352 4V
FLAG 2272 144 8V
FLAG 2176 -32 8V
FLAG 2784 -80 8V
FLAG 2016 208 in
FLAG 2528 416 8V
FLAG 2528 672 0
FLAG 2432 560 4V
FLAG 2608 288 8V
FLAG 2688 464 0
FLAG 2784 416 0
FLAG 2944 304 0
FLAG 2944 208 c5
FLAG -848 1200 0
FLAG -704 1232 0
FLAG -288 1168 0
FLAG -960 1200 4V
FLAG -800 992 8V
FLAG -896 816 8V
FLAG -288 848 8V
FLAG -1056 1056 in
FLAG 96 1360 0
FLAG 256 1280 0
FLAG 384 1280 0
FLAG 784 1200 0
FLAG 928 1232 0
FLAG 1344 1168 0
FLAG 672 1200 4V
FLAG 832 992 8V
FLAG 736 816 8V
FLAG 1344 848 8V
FLAG 1664 1152 0
FLAG 1760 1296 0
FLAG 1888 1232 0
FLAG 464 1504 4V
FLAG 2224 1184 0
FLAG 2112 1184 4V
FLAG 2272 976 8V
FLAG 2176 800 8V
FLAG 2784 752 8V
FLAG 2528 1248 8V
FLAG 2528 1504 0
FLAG 2432 1392 4V
FLAG 2608 1120 8V
FLAG 2688 1296 0
FLAG 2784 1248 0
FLAG 2944 1136 0
FLAG 2944 1040 c0
FLAG -224 -1456 s1
FLAG -848 -1312 0
FLAG -704 -1280 0
FLAG -288 -1344 0
FLAG -960 -1312 4V
FLAG -800 -1520 8V
FLAG -896 -1696 8V
FLAG -288 -1664 8V
FLAG -1056 -1456 in
FLAG 96 -1152 0
FLAG -128 -1456 in
FLAG 448 -1456 s2
FLAG 256 -1232 0
FLAG 384 -1232 0
FLAG 1408 -1456 s3
FLAG 784 -1312 0
FLAG 928 -1280 0
FLAG 1344 -1344 0
FLAG 672 -1312 4V
FLAG 832 -1520 8V
FLAG 736 -1696 8V
FLAG 1344 -1664 8V
FLAG 576 -1456 in
FLAG 1664 -1360 0
FLAG 1760 -1216 0
FLAG 1888 -1280 0
FLAG 1952 -1392 s4
FLAG 1504 -1552 in
FLAG 2224 -1328 0
FLAG 2112 -1328 4V
FLAG 2272 -1536 8V
FLAG 2176 -1712 8V
FLAG 2784 -1760 8V
FLAG 2016 -1472 in
FLAG 2528 -1264 8V
FLAG 2528 -1008 0
FLAG 2432 -1120 4V
FLAG 2608 -1392 8V
FLAG 2688 -1216 0
FLAG 2784 -1264 0
FLAG 2944 -1376 0
FLAG 2944 -1472 s5
FLAG -848 -480 0
FLAG -704 -448 0
FLAG -288 -512 0
FLAG -960 -480 4V
FLAG -800 -688 8V
FLAG -896 -864 8V
FLAG -288 -832 8V
FLAG -1056 -624 in
FLAG 96 -320 0
FLAG 256 -400 0
FLAG 384 -400 0
FLAG 784 -480 0
FLAG 928 -448 0
FLAG 1344 -512 0
FLAG 672 -480 4V
FLAG 832 -688 8V
FLAG 736 -864 8V
FLAG 1344 -832 8V
FLAG 1664 -528 0
FLAG 1760 -384 0
FLAG 1888 -448 0
FLAG 2224 -496 0
FLAG 2112 -496 4V
FLAG 2272 -704 8V
FLAG 2176 -880 8V
FLAG 2784 -928 8V
FLAG 2528 -432 8V
FLAG 2528 -176 0
FLAG 2432 -288 4V
FLAG 2608 -560 8V
FLAG 2688 -384 0
FLAG 2784 -432 0
FLAG 2944 -544 0
FLAG 2944 -640 s0
SYMBOL res -944 384 R180
WINDOW 0 36 76 Left 2
WINDOW 3 36 40 Left 2
SYMATTR InstName R12
SYMATTR Value 220k
SYMBOL cap -992 208 R90
WINDOW 0 0 32 VBottom 2
WINDOW 3 32 32 VTop 2
SYMATTR InstName C10
SYMATTR Value 100n
SYMBOL voltage -1616 1552 R0
WINDOW 123 24 124 Left 2
WINDOW 39 0 0 Left 2
SYMATTR Value2 AC 1V
SYMATTR InstName V1
SYMATTR Value SINE(0 1V 1kHz)
SYMBOL res -880 80 R180
WINDOW 0 36 76 Left 2
WINDOW 3 36 40 Left 2
SYMATTR InstName R13
SYMATTR Value 2.2k
SYMBOL res -304 352 M180
WINDOW 0 36 76 Left 2
WINDOW 3 36 40 Left 2
SYMATTR InstName R17
SYMATTR Value 2.2k
SYMBOL njf -944 160 R0
WINDOW 3 36 47 Left 2
WINDOW 0 62 21 Left 2
SYMATTR Value 2SK117GR
SYMATTR InstName Q7
SYMBOL njf -752 160 M0
WINDOW 0 -47 -7 Left 2
WINDOW 3 -124 19 Left 2
SYMATTR InstName Q8
SYMATTR Value 2SK117GR
SYMBOL pnp -352 112 M180
WINDOW 0 81 77 Left 2
WINDOW 3 32 46 Left 2
SYMATTR InstName Q9
SYMATTR Value 2SA1015GR
SYMBOL cap -320 144 R90
WINDOW 0 0 32 VBottom 2
WINDOW 3 32 32 VTop 2
SYMATTR InstName C12
SYMATTR Value 47p
SYMBOL cap -688 400 R180
WINDOW 0 24 56 Left 2
WINDOW 3 24 8 Left 2
SYMATTR InstName C2
SYMATTR Value 150n
SYMBOL res -832 384 R180
WINDOW 0 36 76 Left 2
WINDOW 3 36 40 Left 2
SYMATTR InstName R14
SYMATTR Value 4.7k
SYMBOL cap -512 208 R90
WINDOW 0 0 32 VBottom 2
WINDOW 3 32 32 VTop 2
SYMATTR InstName C11
SYMATTR Value 47p
SYMBOL res -688 352 R180
WINDOW 0 36 76 Left 2
WINDOW 3 36 40 Left 2
SYMATTR InstName R15
SYMATTR Value 1.5k
SYMBOL res -512 336 R90
WINDOW 0 5 56 VBottom 2
WINDOW 3 27 56 VTop 2
SYMATTR InstName R16
SYMATTR Value 22k
SYMBOL res -368 336 R90
WINDOW 0 5 56 VBottom 2
WINDOW 3 27 56 VTop 2
SYMATTR InstName VR1
SYMATTR Value {drive}
SYMBOL cap -32 208 R90
WINDOW 0 0 32 VBottom 2
WINDOW 3 32 32 VTop 2
SYMATTR InstName C13
SYMATTR Value 220p
SYMBOL res 0 304 R90
WINDOW 0 5 56 VBottom 2
WINDOW 3 27 56 VTop 2
SYMATTR InstName R18
SYMATTR Value 100k
SYMBOL res 160 208 R90
WINDOW 0 5 56 VBottom 2
WINDOW 3 27 56 VTop 2
SYMATTR InstName R19
SYMATTR Value 330k
SYMBOL cap 128 304 R90
WINDOW 0 0 32 VBottom 2
WINDOW 3 32 32 VTop 2
SYMATTR InstName C14
SYMATTR Value 100n
SYMBOL res 176 448 R180
WINDOW 0 36 76 Left 2
WINDOW 3 36 40 Left 2
SYMATTR InstName R20
SYMATTR Value 1Meg
SYMBOL cap 48 416 R180
WINDOW 0 24 56 Left 2
WINDOW 3 24 8 Left 2
SYMATTR InstName C15
SYMATTR Value 47n
SYMBOL res 80 544 M180
WINDOW 0 36 76 Left 2
WINDOW 3 36 40 Left 2
SYMATTR InstName R21
SYMATTR Value 15k
SYMBOL diode 240 256 R0
SYMATTR InstName D6
SYMATTR Value 1N4148
SYMBOL diode 240 352 R0
SYMATTR InstName D7
SYMATTR Value 1N4148
SYMBOL diode 368 320 M180
WINDOW 0 24 64 Left 2
WINDOW 3 24 0 Left 2
SYMATTR InstName D4
SYMATTR Value 1N4148
SYMBOL diode 368 416 M180
WINDOW 0 24 64 Left 2
WINDOW 3 24 0 Left 2
SYMATTR InstName D5
SYMATTR Value 1N4148
SYMBOL res 688 384 R180
WINDOW 0 36 76 Left 2
WINDOW 3 36 40 Left 2
SYMATTR InstName R22
SYMATTR Value 1Meg
SYMBOL cap 640 208 R90
WINDOW 0 0 32 VBottom 2
WINDOW 3 32 32 VTop 2
SYMATTR InstName C16
SYMATTR Value 102.2n
SYMBOL res 752 80 R180
WINDOW 0 36 76 Left 2
WINDOW 3 36 40 Left 2
SYMATTR InstName R23
SYMATTR Value 2.2k
SYMBOL res 1328 352 M180
WINDOW 0 36 76 Left 2
WINDOW 3 36 40 Left 2
SYMATTR InstName R27
SYMATTR Value 2.2k
SYMBOL njf 688 160 R0
WINDOW 3 29 55 Left 2
SYMATTR Value 2SK117GR
SYMATTR InstName Q10
SYMBOL njf 880 160 M0
WINDOW 0 -50 -3 Left 2
WINDOW 3 -132 23 Left 2
SYMATTR InstName Q11
SYMATTR Value 2SK117GR
SYMBOL pnp 1280 112 M180
WINDOW 0 84 73 Left 2
WINDOW 3 27 46 Left 2
SYMATTR InstName Q12
SYMATTR Value 2SA1015GR
SYMBOL cap 1312 144 R90
WINDOW 0 0 32 VBottom 2
WINDOW 3 32 32 VTop 2
SYMATTR InstName C18
SYMATTR Value 47p
SYMBOL cap 944 400 R180
WINDOW 0 24 56 Left 2
WINDOW 3 24 8 Left 2
SYMATTR InstName C42
SYMATTR Value 1µ
SYMBOL res 800 384 R180
WINDOW 0 36 76 Left 2
WINDOW 3 36 40 Left 2
SYMATTR InstName R24
SYMATTR Value 4.7k
SYMBOL cap 1120 208 R90
WINDOW 0 0 32 VBottom 2
WINDOW 3 32 32 VTop 2
SYMATTR InstName C17
SYMATTR Value 100p
SYMBOL res 944 352 R180
WINDOW 0 36 76 Left 2
WINDOW 3 36 40 Left 2
SYMATTR InstName R25
SYMATTR Value 2.2k
SYMBOL res 1120 336 R90
WINDOW 0 5 56 VBottom 2
WINDOW 3 27 56 VTop 2
SYMATTR InstName R26
SYMATTR Value 33k
SYMBOL res 1264 336 R90
WINDOW 0 5 56 VBottom 2
WINDOW 3 27 56 VTop 2
SYMATTR InstName VR11
SYMATTR Value {drive}
SYMBOL res 1632 208 R90
WINDOW 0 5 56 VBottom 2
WINDOW 3 27 56 VTop 2
SYMATTR InstName R28
SYMATTR Value 5.6k
SYMBOL cap 1600 112 R90
WINDOW 0 0 32 VBottom 2
WINDOW 3 32 32 VTop 2
SYMATTR InstName C19
SYMATTR Value 6.8n
SYMBOL cap 1680 320 R180
WINDOW 0 24 56 Left 2
WINDOW 3 24 8 Left 2
SYMATTR InstName C20
SYMATTR Value 10.3n
SYMBOL cap 1776 192 R180
WINDOW 0 24 56 Left 2
WINDOW 3 24 8 Left 2
SYMATTR InstName C21
SYMATTR Value 40n
SYMBOL res 1744 288 M180
WINDOW 0 36 76 Left 2
WINDOW 3 36 40 Left 2
SYMATTR InstName VR3
SYMATTR Value {10k-tone}
SYMBOL res 1744 416 M180
WINDOW 0 36 76 Left 2
WINDOW 3 36 40 Left 2
SYMATTR InstName VR22
SYMATTR Value {tone}
SYMBOL cap 1776 464 R180
WINDOW 0 24 56 Left 2
WINDOW 3 24 8 Left 2
SYMATTR InstName C22
SYMATTR Value 18n
SYMBOL res 1872 416 M180
WINDOW 0 36 76 Left 2
WINDOW 3 36 40 Left 2
SYMATTR InstName VR2
SYMATTR Value 100k
SYMBOL npn -1664 1328 R270
SYMATTR InstName Q15
SYMATTR Value 2SC1815GR
SYMBOL res -1712 1360 R180
WINDOW 0 36 76 Left 2
WINDOW 3 36 40 Left 2
SYMATTR InstName R1
SYMATTR Value 2.2k
SYMBOL cap -1600 1424 R180
WINDOW 0 24 56 Left 2
WINDOW 3 24 8 Left 2
SYMATTR InstName C1
SYMATTR Value 47µ
SYMBOL cap -1472 1328 R180
WINDOW 0 24 56 Left 2
WINDOW 3 24 8 Left 2
SYMATTR InstName C3
SYMATTR Value 100µ
SYMBOL res -1424 1360 M180
WINDOW 0 36 76 Left 2
WINDOW 3 36 40 Left 2
SYMATTR InstName R2
SYMATTR Value 10k
SYMBOL res -1424 1456 M180
WINDOW 0 36 76 Left 2
WINDOW 3 36 40 Left 2
SYMATTR InstName R3
SYMATTR Value 10k
SYMBOL cap -1264 1440 R180
WINDOW 0 24 56 Left 2
WINDOW 3 24 8 Left 2
SYMATTR InstName C4
SYMATTR Value 47µ
SYMBOL voltage -1696 1552 R0
WINDOW 123 0 0 Left 0
WINDOW 39 0 0 Left 0
SYMATTR InstName V2
SYMATTR Value 9
SYMBOL cap 320 512 R90
WINDOW 0 0 32 VBottom 2
WINDOW 3 32 32 VTop 2
SYMATTR InstName C7
SYMATTR Value 1µ
SYMBOL res 336 656 M180
WINDOW 0 36 76 Left 2
WINDOW 3 36 40 Left 2
SYMATTR InstName R42
SYMATTR Value 10k
SYMBOL cap 320 656 R90
WINDOW 0 0 32 VBottom 2
WINDOW 3 32 32 VTop 2
SYMATTR InstName C29
SYMATTR Value 1µ
SYMBOL res 480 656 R90
WINDOW 0 5 56 VBottom 2
WINDOW 3 27 56 VTop 2
SYMATTR InstName R43
SYMATTR Value 1Meg
SYMBOL res 2128 368 R180
WINDOW 0 36 76 Left 2
WINDOW 3 36 40 Left 2
SYMATTR InstName R29
SYMATTR Value 470k
SYMBOL cap 2080 192 R90
WINDOW 0 0 32 VBottom 2
WINDOW 3 32 32 VTop 2
SYMATTR InstName C23
SYMATTR Value 47n
SYMBOL res 2192 64 R180
WINDOW 0 36 76 Left 2
WINDOW 3 36 40 Left 2
SYMATTR InstName R30
SYMATTR Value 2.7k
SYMBOL njf 2128 144 R0
WINDOW 3 29 55 Left 2
SYMATTR Value 2SK117GR
SYMATTR InstName Q13
SYMBOL njf 2320 144 M0
WINDOW 0 -52 -33 Left 2
WINDOW 3 -134 -7 Left 2
SYMATTR InstName Q14
SYMATTR Value 2SK117GR
SYMBOL pnp 2720 96 M180
WINDOW 0 84 73 Left 2
WINDOW 3 27 46 Left 2
SYMATTR InstName Q4
SYMATTR Value 2SA1015GR
SYMBOL cap 2640 128 R90
WINDOW 0 0 32 VBottom 2
WINDOW 3 32 32 VTop 2
SYMATTR InstName C25
SYMATTR Value 220p
SYMBOL res 2240 368 R180
WINDOW 0 36 76 Left 2
WINDOW 3 36 40 Left 2
SYMATTR InstName R31
SYMATTR Value 5.6k
SYMBOL cap 2480 192 R90
WINDOW 0 0 32 VBottom 2
WINDOW 3 32 32 VTop 2
SYMATTR InstName C24
SYMATTR Value 2.2n
SYMBOL res 2512 288 R90
WINDOW 0 5 56 VBottom 2
WINDOW 3 27 56 VTop 2
SYMATTR InstName R33
SYMATTR Value 6.8k
SYMBOL res 2768 128 R90
WINDOW 0 5 56 VBottom 2
WINDOW 3 27 56 VTop 2
SYMATTR InstName R68
SYMATTR Value 1k
SYMBOL cap 2272 448 M90
WINDOW 0 0 32 VBottom 2
WINDOW 3 32 32 VTop 2
SYMATTR InstName C46
SYMATTR Value 68n
SYMBOL npn 2464 416 R0
WINDOW 0 84 114 Left 2
WINDOW 3 82 142 Left 2
SYMATTR InstName Q16
SYMATTR Value 2SC1815-GR
SYMBOL res 2448 576 R180
WINDOW 0 36 76 Left 2
WINDOW 3 36 40 Left 2
SYMATTR InstName R37
SYMATTR Value 470k
SYMBOL res 2512 688 M180
WINDOW 0 36 76 Left 2
WINDOW 3 36 40 Left 2
SYMATTR InstName R36
SYMATTR Value 10k
SYMBOL cap 2144 448 M90
WINDOW 0 0 32 VBottom 2
WINDOW 3 32 32 VTop 2
SYMATTR InstName C26
SYMATTR Value 56n
SYMBOL res 2256 576 R180
WINDOW 0 36 61 Left 2
WINDOW 3 36 40 Left 2
SYMATTR InstName R34
SYMATTR Value 820
SYMBOL npn 2720 240 R0
SYMATTR InstName Q25
SYMATTR Value 2SC1815-GR
SYMBOL res 2704 272 R90
WINDOW 0 5 56 VBottom 2
WINDOW 3 27 56 VTop 2
SYMATTR InstName R66
SYMATTR Value 15k
SYMBOL diode 2704 336 M0
WINDOW 3 30 30 Left 2
SYMATTR Value 1N4148
SYMATTR InstName D9
SYMBOL diode 2704 400 M0
WINDOW 3 30 30 Left 2
SYMATTR Value 1N4148
SYMATTR InstName D8
SYMBOL res 2800 432 R180
WINDOW 0 36 61 Left 2
WINDOW 3 36 40 Left 2
SYMATTR InstName R67
SYMATTR Value 330
SYMBOL cap 2912 192 R90
WINDOW 0 0 32 VBottom 2
WINDOW 3 32 32 VTop 2
SYMATTR InstName C28
SYMATTR Value 10µ
SYMBOL res 2928 320 M180
WINDOW 0 36 76 Left 2
WINDOW 3 36 40 Left 2
SYMATTR InstName R38
SYMATTR Value 100k
SYMBOL res 2800 16 R180
WINDOW 0 36 61 Left 2
WINDOW 3 36 40 Left 2
SYMATTR InstName R69
SYMATTR Value 100
SYMBOL res -944 1216 R180
WINDOW 0 36 76 Left 2
WINDOW 3 36 40 Left 2
SYMATTR InstName R4
SYMATTR Value 220k
SYMBOL cap -992 1040 R90
WINDOW 0 0 32 VBottom 2
WINDOW 3 32 32 VTop 2
SYMATTR InstName C5
SYMATTR Value 100n
SYMBOL res -880 912 R180
WINDOW 0 36 76 Left 2
WINDOW 3 36 40 Left 2
SYMATTR InstName R5
SYMATTR Value 2.2k
SYMBOL res -304 1184 M180
WINDOW 0 36 76 Left 2
WINDOW 3 36 40 Left 2
SYMATTR InstName R6
SYMATTR Value 2.2k
SYMBOL njf -944 992 R0
WINDOW 3 36 47 Left 2
WINDOW 0 62 21 Left 2
SYMATTR Value 2SK117GR
SYMATTR InstName Q1
SYMBOL njf -752 992 M0
WINDOW 0 -47 -7 Left 2
WINDOW 3 -124 19 Left 2
SYMATTR InstName Q2
SYMATTR Value 2SK117GR
SYMBOL pnp -352 944 M180
WINDOW 0 81 77 Left 2
WINDOW 3 32 46 Left 2
SYMATTR InstName Q3
SYMATTR Value 2SA1015GR
SYMBOL cap -320 976 R90
WINDOW 0 0 32 VBottom 2
WINDOW 3 32 32 VTop 2
SYMATTR InstName C6
SYMATTR Value 47p
SYMBOL cap -688 1232 R180
WINDOW 0 24 56 Left 2
WINDOW 3 24 8 Left 2
SYMATTR InstName C8
SYMATTR Value 150n
SYMBOL res -832 1216 R180
WINDOW 0 36 76 Left 2
WINDOW 3 36 40 Left 2
SYMATTR InstName R7
SYMATTR Value 4.7k
SYMBOL cap -512 1040 R90
WINDOW 0 0 32 VBottom 2
WINDOW 3 32 32 VTop 2
SYMATTR InstName C9
SYMATTR Value 47p
SYMBOL res -688 1184 R180
WINDOW 0 36 76 Left 2
WINDOW 3 36 40 Left 2
SYMATTR InstName R8
SYMATTR Value 1.5k
SYMBOL res -512 1168 R90
WINDOW 0 5 56 VBottom 2
WINDOW 3 27 56 VTop 2
SYMATTR InstName R9
SYMATTR Value 22k
SYMBOL res -368 1168 R90
WINDOW 0 5 56 VBottom 2
WINDOW 3 27 56 VTop 2
SYMATTR InstName VR4
SYMATTR Value 37.5k
SYMBOL cap -32 1040 R90
WINDOW 0 0 32 VBottom 2
WINDOW 3 32 32 VTop 2
SYMATTR InstName C27
SYMATTR Value 220p
SYMBOL res 0 1136 R90
WINDOW 0 5 56 VBottom 2
WINDOW 3 27 56 VTop 2
SYMATTR InstName R10
SYMATTR Value 100k
SYMBOL res 160 1040 R90
WINDOW 0 5 56 VBottom 2
WINDOW 3 27 56 VTop 2
SYMATTR InstName R11
SYMATTR Value 330k
SYMBOL cap 128 1136 R90
WINDOW 0 0 32 VBottom 2
WINDOW 3 32 32 VTop 2
SYMATTR InstName C30
SYMATTR Value 100n
SYMBOL res 176 1280 R180
WINDOW 0 36 76 Left 2
WINDOW 3 36 40 Left 2
SYMATTR InstName R32
SYMATTR Value 1Meg
SYMBOL cap 48 1248 R180
WINDOW 0 24 56 Left 2
WINDOW 3 24 8 Left 2
SYMATTR InstName C31
SYMATTR Value 47n
SYMBOL res 80 1376 M180
WINDOW 0 36 76 Left 2
WINDOW 3 36 40 Left 2
SYMATTR InstName R35
SYMATTR Value 15k
SYMBOL diode 240 1088 R0
SYMATTR InstName D1
SYMATTR Value 1N4148
SYMBOL diode 240 1184 R0
SYMATTR InstName D2
SYMATTR Value 1N4148
SYMBOL diode 368 1152 M180
WINDOW 0 24 64 Left 2
WINDOW 3 24 0 Left 2
SYMATTR InstName D3
SYMATTR Value 1N4148
SYMBOL diode 368 1248 M180
WINDOW 0 24 64 Left 2
WINDOW 3 24 0 Left 2
SYMATTR InstName D10
SYMATTR Value 1N4148
SYMBOL res 688 1216 R180
WINDOW 0 36 76 Left 2
WINDOW 3 36 40 Left 2
SYMATTR InstName R39
SYMATTR Value 1Meg
SYMBOL cap 640 1040 R90
WINDOW 0 0 32 VBottom 2
WINDOW 3 32 32 VTop 2
SYMATTR InstName C32
SYMATTR Value 102.2n
SYMBOL res 752 912 R180
WINDOW 0 36 76 Left 2
WINDOW 3 36 40 Left 2
SYMATTR InstName R40
SYMATTR Value 2.2k
SYMBOL res 1328 1184 M180
WINDOW 0 36 76 Left 2
WINDOW 3 36 40 Left 2
SYMATTR InstName R41
SYMATTR Value 2.2k
SYMBOL njf 688 992 R0
WINDOW 3 29 55 Left 2
SYMATTR Value 2SK117GR
SYMATTR InstName Q5
SYMBOL njf 880 992 M0
WINDOW 0 -50 -3 Left 2
WINDOW 3 -132 23 Left 2
SYMATTR InstName Q6
SYMATTR Value 2SK117GR
SYMBOL pnp 1280 944 M180
WINDOW 0 84 73 Left 2
WINDOW 3 27 46 Left 2
SYMATTR InstName Q17
SYMATTR Value 2SA1015GR
SYMBOL cap 1312 976 R90
WINDOW 0 0 32 VBottom 2
WINDOW 3 32 32 VTop 2
SYMATTR InstName C33
SYMATTR Value 47p
SYMBOL cap 944 1232 R180
WINDOW 0 24 56 Left 2
WINDOW 3 24 8 Left 2
SYMATTR InstName C34
SYMATTR Value 1µ
SYMBOL res 800 1216 R180
WINDOW 0 36 76 Left 2
WINDOW 3 36 40 Left 2
SYMATTR InstName R44
SYMATTR Value 4.7k
SYMBOL cap 1120 1040 R90
WINDOW 0 0 32 VBottom 2
WINDOW 3 32 32 VTop 2
SYMATTR InstName C35
SYMATTR Value 100p
SYMBOL res 944 1184 R180
WINDOW 0 36 76 Left 2
WINDOW 3 36 40 Left 2
SYMATTR InstName R45
SYMATTR Value 2.2k
SYMBOL res 1120 1168 R90
WINDOW 0 5 56 VBottom 2
WINDOW 3 27 56 VTop 2
SYMATTR InstName R46
SYMATTR Value 33k
SYMBOL res 1264 1168 R90
WINDOW 0 5 56 VBottom 2
WINDOW 3 27 56 VTop 2
SYMATTR InstName VR5
SYMATTR Value 37.5k
SYMBOL res 1632 1040 R90